.model nigzo nmos level=1 vt0=0 vfb=-0.5 delta=0.4 gmin=6e23
vmin=0.05 sigma0=-1e-18 IOL=0 epsi=3.9 tox=1e-8 alphasat=0.7
gamma=0.06
